4
Coordinates from ORCA-job /lustre/hpc/kemi/ree/PhD/applications/universalRXNpredictor/src/uniRXNpred/test/calc/methyl_anion/xtbopt
  C   0.00084349473002      0.00027573086286      0.31794910408445
  H   0.99333845907960     -0.22763216842529     -0.10956927903572
  H   -0.69507139375651     -0.74733988386873     -0.10227003869156
  H   -0.29911056005310      0.97469632143116     -0.10610878635717
