4
Coordinates from ORCA-job /lustre/hpc/kemi/ree/PhD/applications/universalRXNpredictor/src/uniRXNpred/test/calc/methyl_cation/xtbopt
  C   0.00014424086241      0.00024778648422      0.00009614618891
  H   1.06199724107552     -0.24509473656273      0.00733020509583
  H   -0.74333187233868     -0.79752470792790     -0.01153841995426
  H   -0.31880860959926      1.04237165800641      0.00411306866952
