 xtb: 6.5.1 (579679a)
          12122212393D

  4  3  0     0  0            999 V2000
    0.0003   -0.0001    0.0013 C   0  0  0  0  0  0  0  0  0  0  0  0
    1.0744   -0.2479    0.0070 H   0  0  0  0  0  0  0  0  0  0  0  0
   -0.7519   -0.8061   -0.0121 H   0  0  0  0  0  0  0  0  0  0  0  0
   -0.3228    1.0540    0.0037 H   0  0  0  0  0  0  0  0  0  0  0  0
  1  2  1  0  0  0  0
  1  3  1  0  0  0  0
  1  4  1  0  0  0  0
M  CHG  1   1   1
M  END
