 xtb: 6.5.1 (579679a)
          12192214213D

  4  3  0     0  0            999 V2000
    0.0001   -0.0002    0.0010 C   0  0  0  0  0  0  0  0  0  0  0  0
    1.0600   -0.2443    0.0070 H   0  0  0  0  0  0  0  0  0  0  0  0
   -0.7419   -0.7953   -0.0118 H   0  0  0  0  0  0  0  0  0  0  0  0
   -0.3182    1.0398    0.0038 H   0  0  0  0  0  0  0  0  0  0  0  0
  1  2  1  0  0  0  0
  1  3  1  0  0  0  0
  1  4  1  0  0  0  0
M  CHG  1   1   1
M  END
