4
Coordinates from ORCA-job /lustre/hpc/kemi/ree/PhD/applications/universalRXNpredictor/src/uniRXNpred/ref_calcs/calc_gfn1xtb_alpbDMSO/methyl_anion/xtbopt
  C   0.00091669058981      0.00022362999450      0.31796290475925
  H   0.99343792164437     -0.22760645676713     -0.10950230687441
  H   -0.69516625722572     -0.74721821509657     -0.10231658772724
  H   -0.29918835500847      0.97460104186919     -0.10614401015760
