 xtb: 6.5.1 (579679a)
          12192214213D

  4  3  0     0  0            999 V2000
    0.0011    0.0004    0.3056 C   0  0  0  0  0  0  0  0  0  0  0  0
    0.9835   -0.2258   -0.1053 H   0  0  0  0  0  0  0  0  0  0  0  0
   -0.6879   -0.7394   -0.0983 H   0  0  0  0  0  0  0  0  0  0  0  0
   -0.2967    0.9649   -0.1020 H   0  0  0  0  0  0  0  0  0  0  0  0
  1  2  1  0  0  0  0
  1  3  1  0  0  0  0
  1  4  1  0  0  0  0
M  CHG  1   1  -1
M  END
